@<TRIPOS>MOLECULE
*****
 18 17 0 0 0
SMALL
GASTEIGER

@<TRIPOS>ATOM
      1 N           1.0742   -0.9180    0.7596 N.am    1  UNL1       -0.3058
      2 H           0.7272   -0.9148    1.7144 H       1  UNL1        0.1492
      3 C           0.6378    0.1347   -0.1765 C.3     1  UNL1        0.1088
      4 H           0.7352   -0.2867   -1.1863 H       1  UNL1        0.0603
      5 C           1.5842    1.3519   -0.0246 C.2     1  UNL1        0.2317
      6 O           1.2103    2.3541    0.5901 O.2     1  UNL1       -0.2740
      7 C          -0.8316    0.5754    0.0402 C.3     1  UNL1        0.0346
      8 S          -2.1285   -0.7476   -0.0416 S.3     1  UNL1       -0.0442
      9 C          -1.5219   -2.1166    0.7690 C.1     1  UNL1        0.1330
     10 N          -1.0979   -3.0487    1.3705 N.1     1  UNL1       -0.1838
     11 H          -0.9069    1.0606    1.0167 H       1  UNL1        0.0409
     12 H          -1.0634    1.2901   -0.7540 H       1  UNL1        0.0409
     13 C           2.0900   -1.7863    0.4729 C.2     1  UNL1        0.2006
     14 O           2.7222   -1.7578   -0.5901 O.2     1  UNL1       -0.2795
     15 N           2.8088    1.2349   -0.6033 N.am    1  UNL1       -0.3278
     16 H           2.2952   -2.5187    1.2690 H       1  UNL1        0.1251
     17 H           3.1014    0.3582   -1.0255 H       1  UNL1        0.1450
     18 H           3.4397    2.0198   -0.5153 H       1  UNL1        0.1450
@<TRIPOS>BOND
     1     4     3    1
     2    17    15    1
     3    12     7    1
     4    15    18    1
     5    15     5   am
     6    14    13    2
     7     3     5    1
     8     3     7    1
     9     3     1    1
    10     8     7    1
    11     8     9    1
    12     5     6    2
    13     7    11    1
    14    13     1   am
    15    13    16    1
    16     1     2    1
    17     9    10    3
