@<TRIPOS>MOLECULE
*****
 6 5 0 0 0
SMALL
GASTEIGER

@<TRIPOS>ATOM
      1 O           0.6895    0.0411    0.0026 O.3     1  UNL1       -0.3982
      2 C          -0.7467    0.0151    0.0120 C.3     1  UNL1        0.0330
      3 H          -1.1085    0.5498   -0.8704 H       1  UNL1        0.0521
      4 H          -1.0955    0.4755    0.9404 H       1  UNL1        0.0521
      5 H          -1.0741   -1.0278   -0.0283 H       1  UNL1        0.0521
      6 H           0.9726   -0.8436   -0.2944 H       1  UNL1        0.2090
@<TRIPOS>BOND
     1     3     2    1
     2     6     1    1
     3     5     2    1
     4     1     2    1
     5     2     4    1
