@<TRIPOS>MOLECULE
*****
 6 5 0 0 0
SMALL
GASTEIGER

@<TRIPOS>ATOM
      1 O           0.7440    0.1175   -0.0113 O.3     1  UNL1       -0.3982
      2 C          -0.6854   -0.0119    0.0069 C.3     1  UNL1        0.0330
      3 H          -1.0625    0.1843   -1.0011 H       1  UNL1        0.0521
      4 H          -1.0863    0.6944    0.7398 H       1  UNL1        0.0521
      5 H          -0.9353   -1.0357    0.3035 H       1  UNL1        0.0521
      6 H           1.1046   -0.7873   -0.0095 H       1  UNL1        0.2090
@<TRIPOS>BOND
     1     3     2    1
     2     1     6    1
     3     1     2    1
     4     2     5    1
     5     2     4    1
