@<TRIPOS>MOLECULE
*****
 6 5 0 0 0
SMALL
GASTEIGER

@<TRIPOS>ATOM
      1 O           0.7336    0.1119   -0.0156 O.3     1  UNL1       -0.3982
      2 C          -0.6878   -0.0124    0.0118 C.3     1  UNL1        0.0330
      3 H          -1.0446   -0.0658   -1.0228 H       1  UNL1        0.0521
      4 H          -1.0924    0.8547    0.5454 H       1  UNL1        0.0521
      5 H          -0.9410   -0.9356    0.5462 H       1  UNL1        0.0521
      6 H           1.1145   -0.7803   -0.0146 H       1  UNL1        0.2090
@<TRIPOS>BOND
     1     3     2    1
     2     1     6    1
     3     1     2    1
     4     2     4    1
     5     2     5    1
